Version 4
SHEET 1 2912 680
FLAG 144 176 0
FLAG 144 96 sw1
FLAG 144 512 0
FLAG 144 432 f_out
FLAG 144 336 0
FLAG 144 256 sw2
SYMBOL voltage 144 80 R0
WINDOW 123 0 0 Left 0
WINDOW 39 0 0 Left 0
SYMATTR InstName V1
SYMATTR Value PULSE(0 {vdd} 0 1p 1p {1/(2*f1)} {1/f1})
SYMBOL bv 144 416 R0
SYMATTR InstName B2
SYMATTR Value V=if((time>2m),{V(sw1)},{V(sw2)})
SYMBOL voltage 144 240 R0
WINDOW 123 0 0 Left 0
WINDOW 39 0 0 Left 0
SYMATTR InstName V2
SYMATTR Value PULSE(0 {vdd} 0 1p 1p {1/(2*f2)} {1/f2})
TEXT 336 112 Left 2 !.tran 0 5m 0 10n
TEXT 336 64 Left 2 !.param f1=5k f2=20k vdd=12
