Version 4
SHEET 1 2912 680
FLAG 144 144 0
FLAG 144 64 Vout
FLAG -16 144 0
FLAG -16 64 Vpul
SYMBOL bv 144 48 R0
SYMATTR InstName B1
SYMATTR Value V=if((time+0.498),(15*sin(2*pi*25k*time)),(15*sin(2*pi*5k*time)))
SYMBOL voltage -16 48 R0
WINDOW 123 0 0 Left 0
WINDOW 39 0 0 Left 0
SYMATTR InstName V1
SYMATTR Value 5
TEXT -96 288 Left 2 !.tran 0 5m 0 10n
