Version 4
SHEET 1 1080 680
WIRE -128 -144 -512 -144
WIRE 384 -128 384 -160
WIRE 544 -128 544 -160
WIRE -448 -32 -480 -32
WIRE -432 -32 -448 -32
WIRE -480 -16 -480 -32
WIRE -448 0 -448 -32
WIRE -432 0 -448 0
WIRE -512 32 -512 -144
WIRE -432 32 -512 32
WIRE 0 80 -16 80
WIRE 80 80 64 80
WIRE 112 80 80 80
WIRE 496 80 320 80
WIRE -128 112 -128 -144
WIRE -16 112 -16 80
WIRE 80 112 -16 112
WIRE 112 112 80 112
WIRE 352 112 320 112
WIRE 496 112 432 112
WIRE 112 144 -80 144
WIRE 352 144 320 144
WIRE 496 144 496 112
WIRE 496 144 432 144
WIRE -128 176 -128 112
WIRE 112 176 -128 176
WIRE 496 176 496 144
WIRE 496 176 320 176
WIRE -96 208 -128 208
WIRE 112 208 -96 208
WIRE 416 208 320 208
WIRE 576 208 416 208
WIRE 112 240 -80 240
WIRE 576 240 320 240
WIRE 416 256 416 208
WIRE 496 256 496 176
WIRE -80 272 -80 240
WIRE 112 272 0 272
WIRE 352 272 320 272
WIRE 0 304 0 272
WIRE 112 304 80 304
WIRE 352 304 352 272
WIRE 352 304 320 304
WIRE 352 368 352 304
WIRE -128 416 -128 208
WIRE -128 416 -208 416
WIRE -80 416 -80 352
WIRE -32 416 -80 416
WIRE 0 416 0 384
WIRE 0 416 -32 416
WIRE 352 416 352 368
WIRE 416 416 416 336
WIRE 416 416 352 416
WIRE 496 416 496 320
WIRE 496 416 416 416
WIRE -32 448 -32 416
WIRE 352 448 352 416
FLAG 352 448 0
FLAG 80 80 a
FLAG 80 112 b
FLAG 544 -48 0
FLAG -480 -16 0
FLAG 352 368 VGND
FLAG 496 80 VDD
FLAG 384 -48 0
FLAG 384 -160 VDD
FLAG 544 -160 f_in
FLAG -80 80 f_in
FLAG 576 208 dem_out
FLAG -128 112 out
FLAG -32 448 0
FLAG -96 208 comp_in
FLAG 496 176 vco_in
FLAG 576 240 pulsos_de_fase
SYMBOL CD4046Bg 224 224 R0
SYMATTR InstName U1
SYMBOL voltage 544 -144 R0
WINDOW 3 40 53 Left 2
WINDOW 123 0 0 Left 2
WINDOW 39 0 0 Left 2
SYMATTR Value SINE(0 10m 20k)
SYMATTR InstName V1
SYMBOL voltage 384 -144 R0
WINDOW 123 0 0 Left 2
WINDOW 39 0 0 Left 2
WINDOW 3 38 59 Left 2
SYMATTR InstName V2
SYMATTR Value 12
SYMBOL res 448 96 R90
WINDOW 0 0 56 VBottom 2
WINDOW 3 32 56 VTop 2
SYMATTR InstName R3
SYMATTR Value {R3}
SYMBOL cap 64 64 R90
WINDOW 0 0 32 VBottom 2
WINDOW 3 32 32 VTop 2
SYMATTR InstName C1
SYMATTR Value {C1}
SYMBOL cap 512 320 R180
WINDOW 0 -29 53 Left 2
WINDOW 3 -50 9 Left 2
SYMATTR InstName C2
SYMATTR Value {C2}
SYMBOL res -96 256 R0
SYMATTR InstName R1
SYMATTR Value {R1}
SYMBOL res -16 288 R0
WINDOW 3 33 72 Left 2
SYMATTR Value {R2}
SYMATTR InstName R2
SYMBOL res 400 240 R0
SYMATTR InstName R4
SYMATTR Value 10k
SYMBOL CD4017B -320 -96 R0
SYMATTR InstName U2
SYMBOL cap -96 80 R0
SYMATTR InstName C3
SYMATTR Value 10n
TEXT -72 -112 Left 2 !.tran 0 50m 40m startup
TEXT -72 -144 Left 2 !.inc CD4046Bg.sub
TEXT -72 -176 Left 2 !.inc CD4000.lib
TEXT -72 -80 Left 2 !.param C1=180p C2=10n
TEXT -72 -48 Left 2 !.param R1=142k R2=100k R3=7k8
