Version 4
SHEET 1 1280 680
WIRE -112 -112 -112 -144
WIRE 0 80 -16 80
WIRE 80 80 64 80
WIRE 112 80 80 80
WIRE 496 80 320 80
WIRE -16 112 -16 80
WIRE 80 112 -16 112
WIRE 112 112 80 112
WIRE 352 112 320 112
WIRE 112 144 80 144
WIRE 352 144 320 144
WIRE 112 176 0 176
WIRE 496 176 320 176
WIRE 112 208 80 208
WIRE 416 208 320 208
WIRE 112 240 -80 240
WIRE 352 240 320 240
WIRE 416 256 416 208
WIRE -80 272 -80 240
WIRE 112 272 0 272
WIRE 352 272 320 272
WIRE 0 304 0 272
WIRE 112 304 80 304
WIRE 352 304 352 272
WIRE 352 304 320 304
WIRE 352 368 352 304
WIRE -80 416 -80 352
WIRE -32 416 -80 416
WIRE 0 416 0 384
WIRE 0 416 -32 416
WIRE -32 448 -32 416
WIRE 352 448 352 368
WIRE 416 448 416 336
FLAG 352 448 0
FLAG 80 80 a
FLAG 80 112 b
FLAG 352 368 VGND
FLAG 496 80 VDD
FLAG -112 -32 0
FLAG -112 -144 VDD
FLAG 416 208 dem_out
FLAG -32 448 0
FLAG 496 176 vco_in
FLAG 64 -32 0
FLAG 64 -112 vco_in
FLAG 0 176 vco_out
FLAG 416 448 0
SYMBOL CD4046Bg 224 224 R0
SYMATTR InstName U1
SYMBOL voltage -112 -128 R0
WINDOW 123 0 0 Left 2
WINDOW 39 0 0 Left 2
WINDOW 3 38 59 Left 2
SYMATTR Value {vdd}
SYMATTR InstName V2
SYMBOL cap 64 64 R90
WINDOW 0 -3 57 VBottom 2
WINDOW 3 -31 12 VTop 2
SYMATTR InstName C1
SYMATTR Value {C1}
SYMBOL res -96 256 R0
WINDOW 0 -39 59 Left 2
WINDOW 3 -56 91 Left 2
SYMATTR InstName R1
SYMATTR Value {R1}
SYMBOL res -16 288 R0
WINDOW 3 33 72 Left 2
WINDOW 0 44 41 Left 2
SYMATTR Value {R2}
SYMATTR InstName R2
SYMBOL res 400 240 R0
SYMATTR InstName R4
SYMATTR Value 10k
SYMBOL voltage 64 -128 R0
WINDOW 123 0 0 Left 0
WINDOW 39 0 0 Left 0
SYMATTR InstName V1
SYMATTR Value PWL(0 0 200u 0 201u {vdd/2} 350u {vdd/2} 351u {vdd} 500u {vdd})
TEXT 528 320 Left 2 !.tran 500u startup
TEXT 528 288 Left 2 !.inc CD4046Bg.sub
TEXT 528 256 Left 2 !.inc ../CD4000_v.lib
TEXT 528 352 Left 2 !.param R1=3.3k R2=10k C1=560p
TEXT 528 384 Left 2 !.param vdd = 12
